%%%%%%%%%%%%%%%%%%%%%%%%%%%%%%%%%%%%%%%%%%%%%%%%%%%%%%%%%%%%%%%%%%%%%%%%%%%%%%%%
%                                                                              %
% SU2 configuration file                                                       %
% Case description: ?                                                      %
% Author: ahmed mustafa                                                   %
% Date: 2026-03-28                                                         %
% Generated by su2-wizard (based on SU2 v8.4.0)                        %
%                                                                              %
%%%%%%%%%%%%%%%%%%%%%%%%%%%%%%%%%%%%%%%%%%%%%%%%%%%%%%%%%%%%%%%%%%%%%%%%%%%%%%%%


%-----------------------------------------------------------------------------%
%                              PROBLEM DEFINITION                             %
%-----------------------------------------------------------------------------%

%
% Solver type (EULER, NAVIER_STOKES, RANS, INC_EULER, INC_NAVIER_STOKES,
% INC_RANS, NEMO_EULER, NEMO_NAVIER_STOKES, FEM_EULER, FEM_NAVIER_STOKES,
% FEM_RANS, FEM_LES, HEAT_EQUATION_FVM, ELASTICITY)
% Options: NONE, EULER, NAVIER_STOKES, RANS, INC_EULER, INC_NAVIER_STOKES,
% INC_RANS, FEM_EULER, FEM_NAVIER_STOKES, FEM_RANS, FEM_LES, NEMO_EULER,
% NEMO_NAVIER_STOKES, HEAT_EQUATION, ELASTICITY, TEMPLATE_SOLVER, MULTIPHYSICS
SOLVER= RANS
%

%
% Mathematical problem (DIRECT, CONTINUOUS_ADJOINT, DISCRETE_ADJOINT) Defaults
% to DISCRETE_ADJOINT for the SU2_*_AD codes, and to DIRECT otherwise.
% Options: DIRECT, CONTINUOUS_ADJOINT, DISCRETE_ADJOINT
MATH_PROBLEM= CONTINUOUS_ADJOINT
%

%
% System of measurements (SI, US) International system of units (SI): (
% meters, kilograms, Kelvins, Newtons = kg m/s^2, Pascals = N/m^2, Density =
% kg/m^3, Speed = m/s, Equiv. Area = m^2 ) United States customary units (US):
% ( inches, slug, Rankines, lbf = slug ft/s^2, psf = lbf/ft^2, Density =
% slug/ft^3, Speed = ft/s, Equiv. Area = ft^2 )
% Options: SI, US
SYSTEM_MEASUREMENTS= SI
%

%
% Axisymmetric simulation for 2D problems. (NO, YES)
% Options: NO, YES
AXISYMMETRIC= YES
%

%
% Restart solution (NO, YES)
% Options: NO, YES
RESTART_SOL= YES
%

%-----------------------------------------------------------------------------%
%                         TURBULENCE & PHYSICS MODELS                         %
%-----------------------------------------------------------------------------%

%
% Specify turbulence model (NONE, SA, SST)
% Options: NONE, SA, SST
KIND_TURB_MODEL= SST
%

%
% Transition model (NONE, LM)
% Options: NONE, LM
KIND_TRANS_MODEL= LM
%

%
% Specify Hybrid RANS/LES model (SA_DES, SA_DDES, SA_ZDES, SA_EDDES)
% Options: SA_DES, SA_DDES, SA_ZDES, SA_EDDES
HYBRID_RANSLES= SA_EDDES
%

%-----------------------------------------------------------------------------%
%                         COMPRESSIBLE FLOW CONDITIONS                        %
%-----------------------------------------------------------------------------%

%
% Mach number (non-dimensional, based on the free-stream values)
MACH_NUMBER= 0.8
%

%
% Angle of attack (degrees, only for compressible flows)
AOA= 1.25
%

%
% Side-slip angle (degrees, only for compressible flows)
SIDESLIP_ANGLE= 0.0
%

%
% Init option to choose between Reynolds (default) or thermodynamics
% quantities for initializing the solution (REYNOLDS, TD_CONDITIONS)
% Options: REYNOLDS, TD_CONDITIONS
INIT_OPTION= REYNOLDS
%

%
% Free-stream option to choose between density and temperature (default) for
% initializing the solution (TEMPERATURE_FS, DENSITY_FS)
% Options: TEMPERATURE_FS, DENSITY_FS
FREESTREAM_OPTION= TEMPERATURE_FS
%

%
% Free-stream pressure (101325.0 N/m^2, 2116.216 psf by default)
FREESTREAM_PRESSURE= 101325.0
%

%
% Solids temperature at freestream conditions
FREESTREAM_TEMPERATURE= 288.15
%

%
% Reynolds number (non-dimensional, based on the free-stream values)
REYNOLDS_NUMBER= 6.5E6
%

%
% Reynolds length (1 m, 1 inch by default)
REYNOLDS_LENGTH= 1.0
%

%
% Free-stream turbulence intensity
FREESTREAM_TURBULENCEINTENSITY= 0.05
%

%
% Free-stream ratio between turbulent and laminar viscosity
FREESTREAM_TURB2LAMVISCRATIO= 10.0
%

%
% Compressible flow non-dimensionalization (DIMENSIONAL,
% FREESTREAM_PRESS_EQ_ONE, FREESTREAM_VEL_EQ_MACH, FREESTREAM_VEL_EQ_ONE)
% Options: DIMENSIONAL, FREESTREAM_PRESS_EQ_ONE, FREESTREAM_VEL_EQ_MACH,
% FREESTREAM_VEL_EQ_ONE, INITIAL_VALUES, REFERENCE_VALUES
REF_DIMENSIONALIZATION= DIMENSIONAL
%

%-----------------------------------------------------------------------------%
%                                 FLUID MODEL                                 %
%-----------------------------------------------------------------------------%

%
% ---- NONEQUILIBRIUM GAS, IDEAL GAS, POLYTROPIC, VAN DER WAALS AND PENG
% ROBINSON CONSTANTS, CoolProp library -------% Fluid model (STANDARD_AIR,
% IDEAL_GAS, VW_GAS, PR_GAS, CONSTANT_DENSITY, INC_IDEAL_GAS,
% INC_IDEAL_GAS_POLY, MUTATIONPP, SU2_NONEQ, FLUID_MIXTURE, COOLPROP,
% FLUID_FLAMELET, DATADRIVEN_FLUID)
% Options: STANDARD_AIR, IDEAL_GAS, VW_GAS, PR_GAS, CONSTANT_DENSITY,
% INC_IDEAL_GAS, INC_IDEAL_GAS_POLY, MUTATIONPP, SU2_NONEQ, FLUID_MIXTURE,
% COOLPROP, DATADRIVEN_FLUID, FLUID_FLAMELET
FLUID_MODEL= STANDARD_AIR
%

%
% Viscosity model (SUTHERLAND, CONSTANT_VISCOSITY, POLYNOMIAL_VISCOSITY,
% FLAMELET).
% Options: CONSTANT_VISCOSITY, SUTHERLAND, POLYNOMIAL_VISCOSITY, FLAMELET,
% COOLPROP
VISCOSITY_MODEL= SUTHERLAND
%

%
% Molecular Viscosity that would be constant (1.716E-5 by default)
MU_CONSTANT= 1.716E-5
%

%
% Laminar Conductivity model (CONSTANT_CONDUCTIVITY, CONSTANT_PRANDTL,
% POLYNOMIAL_CONDUCTIVITY, FLAMELET).
% Options: CONSTANT_CONDUCTIVITY, CONSTANT_PRANDTL, POLYNOMIAL_CONDUCTIVITY,
% FLAMELET, COOLPROP
CONDUCTIVITY_MODEL= CONSTANT_PRANDTL
%

%
% Laminar Prandtl number (0.72 (air), only for CONSTANT_PRANDTL)
PRANDTL_LAM= 0.72
%

%
% Turbulent Prandtl number (0.9 (air) by default)
PRANDTL_TURB= 0.90
%

%-----------------------------------------------------------------------------%
%                               REFERENCE VALUES                              %
%-----------------------------------------------------------------------------%

%
% Reference origin for moment computation (m or in)
REF_ORIGIN_MOMENT_X= 0.25
%

%
REF_ORIGIN_MOMENT_Y= 0.00
%

%
REF_ORIGIN_MOMENT_Z= 0.00
%

%
% Reference length for moment non-dimensional coefficients (m or in)
REF_LENGTH= 1.0
%

%
% Reference area for non-dimensional force coefficients (0 implies automatic
% calculation) (m^2 or in^2)
REF_AREA= 1.0
%

%-----------------------------------------------------------------------------%
%                                  MESH & I/O                                 %
%-----------------------------------------------------------------------------%

%
% Mesh input file
MESH_FILENAME= mesh_NACA0012_inv
%

%
% Mesh input file format (SU2, CGNS)
% Options: SU2, CGNS
MESH_FORMAT= SU2
%

%-----------------------------------------------------------------------------%
%                             BOUNDARY CONDITIONS                             %
%-----------------------------------------------------------------------------%

%
% Far-field boundary marker(s) (NONE = no marker)
MARKER_FAR= ( farfield )
%

%
% Symmetry boundary marker(s) (NONE = no marker) Implementation identical to
% MARKER_EULER.
MARKER_SYM= ( NONE )
%

%
% Navier-Stokes (no-slip), isothermal wall marker(s) (NONE = no marker)
% Format: ( marker name, constant wall temperature (K), ... )
MARKER_ISOTHERMAL= ( NONE )
%

%
% Navier-Stokes (no-slip), constant heat flux wall  marker(s) (NONE = no
% marker) Format: ( marker name, constant heat flux (J/m^2), ... )
MARKER_HEATFLUX= ( NONE )
%

%
% Inlet boundary marker(s) with the following formats (NONE = no marker) Total
% Conditions: (inlet marker, total temp, total pressure, flow_direction_x,
% flow_direction_y, flow_direction_z, ... ) where flow_direction is a unit
% vector. Mass Flow: (inlet marker, density, velocity magnitude,
% flow_direction_x, flow_direction_y, flow_direction_z, ... ) where
% flow_direction is a unit vector. Inc. Velocity: (inlet marker, temperature,
% velocity magnitude, flow_direction_x, flow_direction_y, flow_direction_z,
% ... ) where flow_direction is a unit vector. Inc. Pressure: (inlet marker,
% temperature, total pressure, flow_direction_x, flow_direction_y,
% flow_direction_z, ... ) where flow_direction is a unit vector.
MARKER_INLET= ( NONE )
%

%
% Outlet boundary marker(s) (NONE = no marker) Compressible: ( outlet marker,
% back pressure (static thermodynamic), ... ) Inc. Pressure: ( outlet marker,
% back pressure (static gauge in Pa), ... ) Inc. Mass Flow: ( outlet marker,
% mass flow target (kg/s), ... )
MARKER_OUTLET= ( NONE )
%

%
% Inlet boundary type (TOTAL_CONDITIONS, MASS_FLOW)
% Options: TOTAL_CONDITIONS, MASS_FLOW, INPUT_FILE, VELOCITY_INLET,
% PRESSURE_INLET
INLET_TYPE= TOTAL_CONDITIONS
%

%
% Marker(s) of the surface where the non-dimensional coefficients are
% evaluated.
MARKER_MONITORING= ( airfoil )
%

%
% Marker(s) of the surface in the surface flow solution file
MARKER_PLOTTING= ( airfoil )
%

%-----------------------------------------------------------------------------%
%                              NUMERICAL METHODS                              %
%-----------------------------------------------------------------------------%

%
% Numerical method for spatial gradients (GREEN_GAUSS, WEIGHTED_LEAST_SQUARES)
% Options: NONE, GREEN_GAUSS, LEAST_SQUARES, WEIGHTED_LEAST_SQUARES
NUM_METHOD_GRAD= GREEN_GAUSS
%

%
% Numerical method for spatial gradients to be used for MUSCL reconstruction
% Options are (GREEN_GAUSS, WEIGHTED_LEAST_SQUARES, LEAST_SQUARES). Default
% value is NONE and the method specified in NUM_METHOD_GRAD is used.
% Options: NONE, GREEN_GAUSS, LEAST_SQUARES, WEIGHTED_LEAST_SQUARES
NUM_METHOD_GRAD_RECON= LEAST_SQUARES
%

%
% CFL number (initial value for the adaptive CFL number)
CFL_NUMBER= 15.0
%

%
% Adaptive CFL number (NO, YES)
% Options: NO, YES
CFL_ADAPT= NO
%

%
% Convective numerical method (JST, JST_KE, JST_MAT, LAX-FRIEDRICH, ROE, AUSM,
% AUSMPLUSUP, AUSMPLUSUP2, AUSMPLUSM, HLLC, TURKEL_PREC, SW, MSW, FDS, SLAU,
% SLAU2, L2ROE, LMROE)
% Options: NONE, JST, JST_KE, JST_MAT, LAX-FRIEDRICH, ROE, TURKEL_PREC, AUSM,
% AUSMPLUSUP, AUSMPLUSUP2, AUSMPLUSM, SLAU, HLLC, SW, MSW, SCALAR_UPWIND,
% BOUNDED_SCALAR, CONVECTIVE_TEMPLATE, L2ROE, LMROE, SLAU2, FDS
CONV_NUM_METHOD_FLOW= ROE
%

%
% Monotonic Upwind Scheme for Conservation Laws (TVD) in the flow equations.
% Required for 2nd order upwind schemes (NO, YES)
% Options: TVD, NO, YES
MUSCL_FLOW= YES
%

%
% Slope limiter (NONE, VENKATAKRISHNAN, VENKATAKRISHNAN_WANG, BARTH_JESPERSEN,
% VAN_ALBADA_EDGE, NISHIKAWA_R3, NISHIKAWA_R4, NISHIKAWA_R5)
% Options: NONE, VENKATAKRISHNAN, NISHIKAWA_R3, NISHIKAWA_R4, NISHIKAWA_R5,
% VENKATAKRISHNAN_WANG, BARTH_JESPERSEN, VAN_ALBADA_EDGE, SHARP_EDGES,
% WALL_DISTANCE
SLOPE_LIMITER_FLOW= VENKATAKRISHNAN
%

%
% Convective numerical method (SCALAR_UPWIND, BOUNDED_SCALAR)
% Options: NONE, ROE, TURKEL_PREC, AUSM, AUSMPLUSUP, AUSMPLUSUP2, AUSMPLUSM,
% SLAU, HLLC, SW, MSW, SCALAR_UPWIND, BOUNDED_SCALAR, CONVECTIVE_TEMPLATE,
% L2ROE, LMROE, SLAU2, FDS, LAX-FRIEDRICH
CONV_NUM_METHOD_TURB= SCALAR_UPWIND
%

%
% Same as MUSCL_FLOW but for turbulence.
MUSCL_TURB= NO
%

%
% Slope limiter (same as SLOPE_LIMITER_FLOW except VAN_ALBADA_EDGE)
% Options: NONE, VENKATAKRISHNAN, NISHIKAWA_R3, NISHIKAWA_R4, NISHIKAWA_R5,
% VENKATAKRISHNAN_WANG, BARTH_JESPERSEN, VAN_ALBADA_EDGE, SHARP_EDGES,
% WALL_DISTANCE
SLOPE_LIMITER_TURB= VENKATAKRISHNAN
%

%
% Time discretization (RUNGE-KUTTA_EXPLICIT, EULER_IMPLICIT, EULER_EXPLICIT)
% Options: RUNGE-KUTTA_EXPLICIT, EULER_IMPLICIT, EULER_EXPLICIT
TIME_DISCRE_FLOW= EULER_IMPLICIT
%

%
% Linear solver or smoother for implicit formulations: BCGSTAB, FGMRES,
% FGCRODR, RESTARTED_FGMRES, CONJUGATE_GRADIENT (self-adjoint problems only),
% SMOOTHER.
% Options: CONJUGATE_GRADIENT, BCGSTAB, FGMRES, RESTARTED_FGMRES, FGCRODR,
% SMOOTHER, PASTIX_LDLT, PASTIX_LU
LINEAR_SOLVER= FGMRES
%

%
% Preconditioner of the Krylov linear solver or type of smoother (ILU, LU_SGS,
% LINELET, JACOBI)
% Options: JACOBI, LU_SGS, LINELET, ILU, PASTIX_ILU, PASTIX_LU, PASTIX_LDLT
LINEAR_SOLVER_PREC= ILU
%

%
% Minimum error of the linear solver for implicit formulations
LINEAR_SOLVER_ERROR= 1E-6
%

%
% Max number of iterations of the linear solver for the implicit formulation
LINEAR_SOLVER_ITER= 5
%

%
% Multi-grid levels (0 = no multi-grid)
MGLEVEL= 0
%

%-----------------------------------------------------------------------------%
%                             CONVERGENCE CONTROL                             %
%-----------------------------------------------------------------------------%

%
% Number of iterations for single-zone problems
ITER= 1
%

%
% Convergence field
CONV_FIELD= DRAG
%

%
% Min value of the residual (log10 of the residual)
CONV_RESIDUAL_MINVAL= -8
%

%
% Start convergence criteria at iteration number
CONV_STARTITER= 10
%

%
% Number of elements to apply the criteria
CONV_CAUCHY_ELEMS= 100
%

%
% Epsilon to control the series convergence
CONV_CAUCHY_EPS= 1E-10
%

%
% Objective function in gradient evaluation  (DRAG, LIFT, SIDEFORCE, MOMENT_X,
% MOMENT_Y, MOMENT_Z, EFFICIENCY, BUFFET, EQUIVALENT_AREA, NEARFIELD_PRESSURE,
% FORCE_X, FORCE_Y, FORCE_Z, THRUST, TORQUE, TOTAL_HEATFLUX, CUSTOM_OBJFUNC
% MAXIMUM_HEATFLUX, INVERSE_DESIGN_PRESSURE, INVERSE_DESIGN_HEATFLUX,
% SURFACE_TOTAL_PRESSURE, SURFACE_MASSFLOW, SURFACE_STATIC_PRESSURE,
% SURFACE_MACH) For a weighted sum of objectives: separate by commas, add
% OBJECTIVE_WEIGHT and MARKER_MONITORING in matching order.
% Options: DRAG, LIFT, SIDEFORCE, MOMENT_X, MOMENT_Y, MOMENT_Z, EFFICIENCY,
% BUFFET, EQUIVALENT_AREA, NEARFIELD_PRESSURE, FORCE_X, FORCE_Y, FORCE_Z,
% THRUST, TORQUE, TOTAL_HEATFLUX, INVERSE_DESIGN_PRESSURE,
% INVERSE_DESIGN_HEATFLUX, SURFACE_TOTAL_PRESSURE, SURFACE_MASSFLOW,
% SURFACE_STATIC_PRESSURE, SURFACE_MACH
OBJECTIVE_FUNCTION= DRAG
%

%-----------------------------------------------------------------------------%
%                           TIME-DEPENDENT SETTINGS                           %
%-----------------------------------------------------------------------------%

%
% Time domain simulation
TIME_DOMAIN= NO
%

%-----------------------------------------------------------------------------%
%                                    OUTPUT                                   %
%-----------------------------------------------------------------------------%

%
% Files to output Possible formats : (TECPLOT_ASCII, TECPLOT,
% SURFACE_TECPLOT_ASCII, SURFACE_TECPLOT, CSV, SURFACE_CSV, PARAVIEW_ASCII,
% PARAVIEW_LEGACY, SURFACE_PARAVIEW_ASCII, SURFACE_PARAVIEW_LEGACY, PARAVIEW,
% SURFACE_PARAVIEW, RESTART_ASCII, RESTART, CGNS, SURFACE_CGNS, STL_ASCII,
% STL_BINARY) default : (RESTART, PARAVIEW, SURFACE_PARAVIEW)
% Options: TECPLOT_ASCII, TECPLOT, SURFACE_TECPLOT_ASCII, SURFACE_TECPLOT,
% CSV, SURFACE_CSV, PARAVIEW_ASCII, PARAVIEW_LEGACY, SURFACE_PARAVIEW_ASCII,
% SURFACE_PARAVIEW_LEGACY, PARAVIEW, SURFACE_PARAVIEW, RESTART_ASCII, RESTART,
% CGNS, SURFACE_CGNS, STL_ASCII, STL_BINARY
OUTPUT_FILES= TECPLOT_ASCII
%

%
% Output file convergence history (w/o extension)
CONV_FILENAME= history
%

%
% Output file restart flow
RESTART_FILENAME= restart_flow
%

%
% Output file flow (w/o extension) variables
VOLUME_FILENAME= flow
%

%
% Output file surface flow coefficient (w/o extension)
SURFACE_FILENAME= surface_flow
%

%
% Screen output fields (use 'SU2_CFD -d <config_file>' to view list of
% available fields)
SCREEN_OUTPUT= (INNER_ITER, RMS_DENSITY, RMS_MOMENTUM-X, RMS_MOMENTUM-Y, RMS_ENERGY)
%

%
% History output groups (use 'SU2_CFD -d <config_file>' to view list of
% available fields)
HISTORY_OUTPUT= (ITER, RMS_RES)
%

%
% list of writing frequencies corresponding to the list in OUTPUT_FILES
OUTPUT_WRT_FREQ= 10, 250, 42
%
